
This summary information was generated by ElastoDyn (v1.04.00a-bjj, 26-Jul-2016) on 06-Sep-2022 at 10:18:38.


Turbine features:

            Upwind, three-bladed rotor with rigid hub.
            The model has 15 of 24 DOFs active (enabled) at start-up.
 Disabled   Platform horizontal surge translation DOF 
 Disabled   Platform horizontal sway translation DOF 
 Disabled   Platform vertical heave translation DOF 
 Disabled   Platform roll tilt rotation DOF 
 Disabled   Platform pitch tilt rotation DOF 
 Disabled   Platform yaw rotation DOF 
 Enabled    1st tower fore-aft bending mode DOF 
 Enabled    1st tower side-to-side bending mode DOF 
 Enabled    2nd tower fore-aft bending mode DOF 
 Enabled    2nd tower side-to-side bending mode DOF 
 Disabled   Nacelle yaw DOF 
 Disabled   Rotor-furl DOF 
 Enabled    Variable speed generator DOF 
 Enabled    Drivetrain rotational-flexibility DOF 
 Disabled   Tail-furl DOF 
 Enabled    1st flapwise bending-mode DOF of blade 1 
 Enabled    1st edgewise bending-mode DOF of blade 1 
 Enabled    2nd flapwise bending-mode DOF of blade 1 
 Enabled    1st flapwise bending-mode DOF of blade 2 
 Enabled    1st edgewise bending-mode DOF of blade 2 
 Enabled    2nd flapwise bending-mode DOF of blade 2 
 Enabled    1st flapwise bending-mode DOF of blade 3 
 Enabled    1st edgewise bending-mode DOF of blade 3 
 Enabled    2nd flapwise bending-mode DOF of blade 3 


Time steps:

    Structural            (s)        0.01000000


Some calculated parameters:

    Hub-Height            (m)            90.437
    Flexible Tower Length (m)            87.600
    Flexible Blade Length (m)            61.500


Rotor mass properties:

    Rotor Mass            (kg)       110326.297
    Rotor Inertia         (kg-m^2) 38986064.000
                                        Blade 1      Blade 2      Blade 3
                                        -------      -------      -------
    Mass                  (kg)        17848.770    17848.770    17848.770
    Second Mass Moment    (kg-m^2) 11843745.000 11843745.000 11843745.000
    First Mass Moment     (kg-m)     365838.875   365838.875   365838.875
    Center of Mass        (m)            20.497       20.497       20.497


Additional mass properties:

    Tower-top Mass        (kg)       350326.312
    Tower Mass            (kg)       348398.125
    Platform Mass         (kg)            0.000
    Mass Incl. Platform   (kg)       698724.438


Interpolated tower properties:

Node  TwFract   HNodes  DHNodes  TMassDen    FAStiff    SSStiff
 (-)      (-)      (m)      (m)    (kg/m)     (Nm^2)     (Nm^2)
   1    0.045    3.982    7.964  5415.138  5.768E+11  5.768E+11
   2    0.136   11.945    7.964  5099.468  5.081E+11  5.081E+11
   3    0.227   19.909    7.964  4793.062  4.456E+11  4.456E+11
   4    0.318   27.873    7.964  4495.919  3.890E+11  3.890E+11
   5    0.409   35.836    7.964  4208.041  3.379E+11  3.379E+11
   6    0.500   43.800    7.964  3929.426  2.920E+11  2.920E+11
   7    0.591   51.764    7.964  3661.104  2.513E+11  2.513E+11
   8    0.682   59.727    7.964  3402.045  2.149E+11  2.149E+11
   9    0.773   67.691    7.964  3152.250  1.827E+11  1.827E+11
  10    0.864   75.655    7.964  2911.719  1.541E+11  1.541E+11
  11    0.955   83.618    7.964  2680.452  1.290E+11  1.290E+11


Interpolated blade 1 properties:

Node  BlFract   RNodes  DRNodes PitchAxis  StrcTwst  BMassDen    FlpStff    EdgStff
 (-)      (-)      (m)      (m)       (-)     (deg)    (kg/m)     (Nm^2)     (Nm^2)
   1    0.010    2.141    1.281     0.500    13.308   771.169  1.881E+10  1.889E+10
   2    0.031    3.422    1.281     0.500    13.308   792.666  1.800E+10  1.951E+10
   3    0.052    4.703    1.281     0.500    13.308   781.991  1.527E+10  1.977E+10
   4    0.073    5.984    1.281     0.477    13.308   583.709  9.772E+09  1.354E+10
   5    0.094    7.266    1.281     0.463    13.308   460.414  6.709E+09  9.612E+09
   6    0.115    8.547    1.281     0.448    13.308   427.403  5.648E+09  8.229E+09
   7    0.135    9.828    1.281     0.436    13.308   406.354  4.975E+09  6.900E+09
   8    0.156   11.109    1.281     0.422    13.308   434.115  4.836E+09  7.074E+09
   9    0.177   12.391    1.281     0.410    13.220   443.830  4.179E+09  7.240E+09
  10    0.198   13.672    1.281     0.400    12.857   429.795  3.402E+09  7.087E+09
  11    0.219   14.953    1.281     0.380    12.032   395.638  2.841E+09  5.942E+09
  12    0.240   16.234    1.281     0.376    11.300   371.164  2.473E+09  4.995E+09
  13    0.260   17.516    1.281     0.375    10.844   366.983  2.294E+09  4.834E+09
  14    0.281   18.797    1.281     0.375    10.485   362.232  2.150E+09  4.640E+09
  15    0.302   20.078    1.281     0.375    10.126   356.927  2.008E+09  4.453E+09
  16    0.323   21.359    1.281     0.375     9.767   350.608  1.866E+09  4.288E+09
  17    0.344   22.641    1.281     0.375     9.408   344.943  1.716E+09  4.127E+09
  18    0.365   23.922    1.281     0.375     9.046   339.496  1.564E+09  3.968E+09
  19    0.385   25.203    1.281     0.375     8.677   333.962  1.418E+09  3.812E+09
  20    0.406   26.484    1.281     0.375     8.298   323.901  1.260E+09  3.632E+09
  21    0.427   27.766    1.281     0.375     7.912   311.371  1.095E+09  3.437E+09
  22    0.448   29.047    1.281     0.375     7.521   306.214  9.498E+08  3.240E+09
  23    0.469   30.328    1.281     0.375     7.129   295.689  8.147E+08  3.012E+09
  24    0.490   31.609    1.281     0.375     6.739   279.583  6.901E+08  2.753E+09
  25    0.510   32.891    1.281     0.375     6.360   272.064  5.940E+08  2.627E+09
  26    0.531   34.172    1.281     0.375     5.986   264.848  5.050E+08  2.503E+09
  27    0.552   35.453    1.281     0.375     5.617   257.030  4.244E+08  2.361E+09
  28    0.573   36.734    1.281     0.375     5.249   244.025  3.601E+08  2.073E+09
  29    0.594   38.016    1.281     0.375     4.881   229.895  3.026E+08  1.790E+09
  30    0.615   39.297    1.281     0.375     4.516   216.115  2.539E+08  1.633E+09
  31    0.635   40.578    1.281     0.375     4.152   202.081  2.111E+08  1.470E+09
  32    0.656   41.859    1.281     0.375     3.794   188.486  1.719E+08  1.312E+09
  33    0.677   43.141    1.281     0.375     3.472   178.793  1.400E+08  1.223E+09
  34    0.698   44.422    1.281     0.375     3.172   170.484  1.192E+08  1.125E+09
  35    0.719   45.703    1.281     0.375     2.889   163.240  1.072E+08  1.020E+09
  36    0.740   46.984    1.281     0.375     2.641   152.757  9.674E+07  8.774E+08
  37    0.760   48.266    1.281     0.375     2.394   144.097  8.676E+07  7.729E+08
  38    0.781   49.547    1.281     0.375     2.146   137.744  7.743E+07  7.164E+08
  39    0.802   50.828    1.281     0.375     1.898   123.690  6.770E+07  6.016E+08
  40    0.823   52.109    1.281     0.375     1.651   111.578  5.868E+07  5.052E+08
  41    0.844   53.391    1.281     0.375     1.402   105.829  5.127E+07  4.647E+08
  42    0.865   54.672    1.281     0.375     1.153   100.059  4.456E+07  4.258E+08
  43    0.885   55.953    1.281     0.375     0.905    93.484  3.817E+07  3.846E+08
  44    0.906   57.234    1.281     0.375     0.661    82.057  3.239E+07  3.275E+08
  45    0.927   58.516    1.281     0.375     0.435    73.522  2.724E+07  2.857E+08
  46    0.948   59.797    1.281     0.375     0.246    62.041  1.893E+07  1.548E+08
  47    0.969   61.078    1.281     0.375     0.149    52.799  1.075E+07  1.058E+08
  48    0.990   62.359    1.281     0.375     0.050    33.875  3.213E+06  4.588E+07


Interpolated blade 2 properties:

Node  BlFract   RNodes  DRNodes PitchAxis  StrcTwst  BMassDen    FlpStff    EdgStff
 (-)      (-)      (m)      (m)       (-)     (deg)    (kg/m)     (Nm^2)     (Nm^2)
   1    0.010    2.141    1.281     0.500    13.308   771.169  1.881E+10  1.889E+10
   2    0.031    3.422    1.281     0.500    13.308   792.666  1.800E+10  1.951E+10
   3    0.052    4.703    1.281     0.500    13.308   781.991  1.527E+10  1.977E+10
   4    0.073    5.984    1.281     0.477    13.308   583.709  9.772E+09  1.354E+10
   5    0.094    7.266    1.281     0.463    13.308   460.414  6.709E+09  9.612E+09
   6    0.115    8.547    1.281     0.448    13.308   427.403  5.648E+09  8.229E+09
   7    0.135    9.828    1.281     0.436    13.308   406.354  4.975E+09  6.900E+09
   8    0.156   11.109    1.281     0.422    13.308   434.115  4.836E+09  7.074E+09
   9    0.177   12.391    1.281     0.410    13.220   443.830  4.179E+09  7.240E+09
  10    0.198   13.672    1.281     0.400    12.857   429.795  3.402E+09  7.087E+09
  11    0.219   14.953    1.281     0.380    12.032   395.638  2.841E+09  5.942E+09
  12    0.240   16.234    1.281     0.376    11.300   371.164  2.473E+09  4.995E+09
  13    0.260   17.516    1.281     0.375    10.844   366.983  2.294E+09  4.834E+09
  14    0.281   18.797    1.281     0.375    10.485   362.232  2.150E+09  4.640E+09
  15    0.302   20.078    1.281     0.375    10.126   356.927  2.008E+09  4.453E+09
  16    0.323   21.359    1.281     0.375     9.767   350.608  1.866E+09  4.288E+09
  17    0.344   22.641    1.281     0.375     9.408   344.943  1.716E+09  4.127E+09
  18    0.365   23.922    1.281     0.375     9.046   339.496  1.564E+09  3.968E+09
  19    0.385   25.203    1.281     0.375     8.677   333.962  1.418E+09  3.812E+09
  20    0.406   26.484    1.281     0.375     8.298   323.901  1.260E+09  3.632E+09
  21    0.427   27.766    1.281     0.375     7.912   311.371  1.095E+09  3.437E+09
  22    0.448   29.047    1.281     0.375     7.521   306.214  9.498E+08  3.240E+09
  23    0.469   30.328    1.281     0.375     7.129   295.689  8.147E+08  3.012E+09
  24    0.490   31.609    1.281     0.375     6.739   279.583  6.901E+08  2.753E+09
  25    0.510   32.891    1.281     0.375     6.360   272.064  5.940E+08  2.627E+09
  26    0.531   34.172    1.281     0.375     5.986   264.848  5.050E+08  2.503E+09
  27    0.552   35.453    1.281     0.375     5.617   257.030  4.244E+08  2.361E+09
  28    0.573   36.734    1.281     0.375     5.249   244.025  3.601E+08  2.073E+09
  29    0.594   38.016    1.281     0.375     4.881   229.895  3.026E+08  1.790E+09
  30    0.615   39.297    1.281     0.375     4.516   216.115  2.539E+08  1.633E+09
  31    0.635   40.578    1.281     0.375     4.152   202.081  2.111E+08  1.470E+09
  32    0.656   41.859    1.281     0.375     3.794   188.486  1.719E+08  1.312E+09
  33    0.677   43.141    1.281     0.375     3.472   178.793  1.400E+08  1.223E+09
  34    0.698   44.422    1.281     0.375     3.172   170.484  1.192E+08  1.125E+09
  35    0.719   45.703    1.281     0.375     2.889   163.240  1.072E+08  1.020E+09
  36    0.740   46.984    1.281     0.375     2.641   152.757  9.674E+07  8.774E+08
  37    0.760   48.266    1.281     0.375     2.394   144.097  8.676E+07  7.729E+08
  38    0.781   49.547    1.281     0.375     2.146   137.744  7.743E+07  7.164E+08
  39    0.802   50.828    1.281     0.375     1.898   123.690  6.770E+07  6.016E+08
  40    0.823   52.109    1.281     0.375     1.651   111.578  5.868E+07  5.052E+08
  41    0.844   53.391    1.281     0.375     1.402   105.829  5.127E+07  4.647E+08
  42    0.865   54.672    1.281     0.375     1.153   100.059  4.456E+07  4.258E+08
  43    0.885   55.953    1.281     0.375     0.905    93.484  3.817E+07  3.846E+08
  44    0.906   57.234    1.281     0.375     0.661    82.057  3.239E+07  3.275E+08
  45    0.927   58.516    1.281     0.375     0.435    73.522  2.724E+07  2.857E+08
  46    0.948   59.797    1.281     0.375     0.246    62.041  1.893E+07  1.548E+08
  47    0.969   61.078    1.281     0.375     0.149    52.799  1.075E+07  1.058E+08
  48    0.990   62.359    1.281     0.375     0.050    33.875  3.213E+06  4.588E+07


Interpolated blade 3 properties:

Node  BlFract   RNodes  DRNodes PitchAxis  StrcTwst  BMassDen    FlpStff    EdgStff
 (-)      (-)      (m)      (m)       (-)     (deg)    (kg/m)     (Nm^2)     (Nm^2)
   1    0.010    2.141    1.281     0.500    13.308   771.169  1.881E+10  1.889E+10
   2    0.031    3.422    1.281     0.500    13.308   792.666  1.800E+10  1.951E+10
   3    0.052    4.703    1.281     0.500    13.308   781.991  1.527E+10  1.977E+10
   4    0.073    5.984    1.281     0.477    13.308   583.709  9.772E+09  1.354E+10
   5    0.094    7.266    1.281     0.463    13.308   460.414  6.709E+09  9.612E+09
   6    0.115    8.547    1.281     0.448    13.308   427.403  5.648E+09  8.229E+09
   7    0.135    9.828    1.281     0.436    13.308   406.354  4.975E+09  6.900E+09
   8    0.156   11.109    1.281     0.422    13.308   434.115  4.836E+09  7.074E+09
   9    0.177   12.391    1.281     0.410    13.220   443.830  4.179E+09  7.240E+09
  10    0.198   13.672    1.281     0.400    12.857   429.795  3.402E+09  7.087E+09
  11    0.219   14.953    1.281     0.380    12.032   395.638  2.841E+09  5.942E+09
  12    0.240   16.234    1.281     0.376    11.300   371.164  2.473E+09  4.995E+09
  13    0.260   17.516    1.281     0.375    10.844   366.983  2.294E+09  4.834E+09
  14    0.281   18.797    1.281     0.375    10.485   362.232  2.150E+09  4.640E+09
  15    0.302   20.078    1.281     0.375    10.126   356.927  2.008E+09  4.453E+09
  16    0.323   21.359    1.281     0.375     9.767   350.608  1.866E+09  4.288E+09
  17    0.344   22.641    1.281     0.375     9.408   344.943  1.716E+09  4.127E+09
  18    0.365   23.922    1.281     0.375     9.046   339.496  1.564E+09  3.968E+09
  19    0.385   25.203    1.281     0.375     8.677   333.962  1.418E+09  3.812E+09
  20    0.406   26.484    1.281     0.375     8.298   323.901  1.260E+09  3.632E+09
  21    0.427   27.766    1.281     0.375     7.912   311.371  1.095E+09  3.437E+09
  22    0.448   29.047    1.281     0.375     7.521   306.214  9.498E+08  3.240E+09
  23    0.469   30.328    1.281     0.375     7.129   295.689  8.147E+08  3.012E+09
  24    0.490   31.609    1.281     0.375     6.739   279.583  6.901E+08  2.753E+09
  25    0.510   32.891    1.281     0.375     6.360   272.064  5.940E+08  2.627E+09
  26    0.531   34.172    1.281     0.375     5.986   264.848  5.050E+08  2.503E+09
  27    0.552   35.453    1.281     0.375     5.617   257.030  4.244E+08  2.361E+09
  28    0.573   36.734    1.281     0.375     5.249   244.025  3.601E+08  2.073E+09
  29    0.594   38.016    1.281     0.375     4.881   229.895  3.026E+08  1.790E+09
  30    0.615   39.297    1.281     0.375     4.516   216.115  2.539E+08  1.633E+09
  31    0.635   40.578    1.281     0.375     4.152   202.081  2.111E+08  1.470E+09
  32    0.656   41.859    1.281     0.375     3.794   188.486  1.719E+08  1.312E+09
  33    0.677   43.141    1.281     0.375     3.472   178.793  1.400E+08  1.223E+09
  34    0.698   44.422    1.281     0.375     3.172   170.484  1.192E+08  1.125E+09
  35    0.719   45.703    1.281     0.375     2.889   163.240  1.072E+08  1.020E+09
  36    0.740   46.984    1.281     0.375     2.641   152.757  9.674E+07  8.774E+08
  37    0.760   48.266    1.281     0.375     2.394   144.097  8.676E+07  7.729E+08
  38    0.781   49.547    1.281     0.375     2.146   137.744  7.743E+07  7.164E+08
  39    0.802   50.828    1.281     0.375     1.898   123.690  6.770E+07  6.016E+08
  40    0.823   52.109    1.281     0.375     1.651   111.578  5.868E+07  5.052E+08
  41    0.844   53.391    1.281     0.375     1.402   105.829  5.127E+07  4.647E+08
  42    0.865   54.672    1.281     0.375     1.153   100.059  4.456E+07  4.258E+08
  43    0.885   55.953    1.281     0.375     0.905    93.484  3.817E+07  3.846E+08
  44    0.906   57.234    1.281     0.375     0.661    82.057  3.239E+07  3.275E+08
  45    0.927   58.516    1.281     0.375     0.435    73.522  2.724E+07  2.857E+08
  46    0.948   59.797    1.281     0.375     0.246    62.041  1.893E+07  1.548E+08
  47    0.969   61.078    1.281     0.375     0.149    52.799  1.075E+07  1.058E+08
  48    0.990   62.359    1.281     0.375     0.050    33.875  3.213E+06  4.588E+07


Requested Outputs:


  Col  Parameter  Units
  ---  ---------  -----
   0   Time       (s)       
   1   OoPDefl1   (m)       
   2   OoPDefl2   (m)       
   3   OoPDefl3   (m)       
   4   IPDefl1    (m)       
   5   IPDefl2    (m)       
   6   IPDefl3    (m)       
   7   NcIMUTAxs  (m/s^2)   
   8   NcIMUTAys  (m/s^2)   
   9   NcIMUTAzs  (m/s^2)   
  10   NcIMUTVxs  (m/s)     
  11   NcIMUTVys  (m/s)     
  12   NcIMUTVzs  (m/s)     
  13   RootMOoP1  (kN·m)    
  14   RootMOoP2  (kN·m)    
  15   RootMOoP3  (kN·m)    
  16   RootMIP1   (kN·m)    
  17   RootMIP2   (kN·m)    
  18   RootMIP3   (kN·m)    
  19   RootMFlp1  (kN·m)    
  20   RootMFlp2  (kN·m)    
  21   RootMFlp3  (kN·m)    
  22   RootMEdg1  (kN·m)    
  23   RootMEdg2  (kN·m)    
  24   RootMEdg3  (kN·m)    
  25   TwrBsMxt   (kN·m)    
  26   TwrBsMyt   (kN·m)    
  27   TwrBsMzt   (kN·m)    
  28   LSSTipMya  (kN·m)    
  29   LSSTipMza  (kN·m)    
  30   LSSTipVxa  (rpm)     
  31   GenSpeed   (rpm)     
  32   BlPitch1   (deg)     
  33   BlPitch2   (deg)     
  34   BlPitch3   (deg)     
  35   Azimuth    (deg)     
  36   RotPwr     (kW)      
  37   RotThrust  (kN)      
  38   RotSpeed   (rpm)     
  39   HSShftTq   (kN·m)    
  40   LSShftFya  (kN)      
  41   LSShftFza  (kN)      
  42   LSShftFys  (kN)      
  43   LSShftFzs  (kN)      
  44   YawBrFyp   (kN)      
  45   YawBrTDyt  (m)       
  46   RotTorq    (kN·m)    
  47   TwHt1ALxt  (m/s^2)   
  48   TwHt1ALyt  (m/s^2)   
  49   TwHt2ALxt  (m/s^2)   
  50   TwHt2ALyt  (m/s^2)   
  51   TwHt3ALxt  (m/s^2)   
  52   TwHt3ALyt  (m/s^2)   
  53   TwHt4ALxt  (m/s^2)   
  54   TwHt4ALyt  (m/s^2)   
  55   TwHt5ALxt  (m/s^2)   
  56   TwHt5ALyt  (m/s^2)   
  57   TwHt6ALxt  (m/s^2)   
  58   TwHt6ALyt  (m/s^2)   
  59   TwHt7ALxt  (m/s^2)   
  60   TwHt7ALyt  (m/s^2)   
  61   TwHt8ALxt  (m/s^2)   
  62   TwHt8ALyt  (m/s^2)   
  63   TwHt9ALxt  (m/s^2)   
  64   TwHt9ALyt  (m/s^2)   
  65   YawBrTAxp  (m/s^2)   
